441130
  -OEChem-08102518293D

 51 53  0     1  0  0  0  0  0999 V2000
    0.5934   -0.4784    1.7576 S   0  0  0  0  0  0  0  0  0  0  0  0
   -4.5467   -1.8518   -0.1020 O   0  0  0  0  0  0  0  0  0  0  0  0
   -4.9522    1.1525   -2.1140 O   0  0  0  0  0  0  0  0  0  0  0  0
   -1.6590   -2.9027   -1.2660 O   0  0  0  0  0  0  0  0  0  0  0  0
   -0.7025   -3.2220    0.7867 O   0  0  0  0  0  0  0  0  0  0  0  0
    4.6076   -1.2324    0.2465 O   0  0  0  0  0  0  0  0  0  0  0  0
   -2.6262   -0.5270   -0.4467 N   0  0  0  0  0  0  0  0  0  0  0  0
    3.0754    1.2146   -0.8570 N   0  0  0  0  0  0  0  0  0  0  0  0
    6.0869    0.2748   -0.7246 N   0  0  0  0  0  0  0  0  0  0  0  0
   -2.7007    0.9181   -0.1491 C   0  0  1  0  0  0  0  0  0  0  0  0
   -4.2193    0.6732    0.1189 C   0  0  2  0  0  0  0  0  0  0  0  0
   -1.5694    1.1446    0.8759 C   0  0  2  0  0  0  0  0  0  0  0  0
   -3.9289   -0.8138   -0.1777 C   0  0  0  0  0  0  0  0  0  0  0  0
   -0.8604   -0.1985    0.8856 C   0  0  0  0  0  0  0  0  0  0  0  0
   -1.5327   -1.0893    0.1440 C   0  0  0  0  0  0  0  0  0  0  0  0
   -5.3033    1.2803   -0.7353 C   0  0  1  0  0  0  0  0  0  0  0  0
   -2.0464    1.6108    2.2416 C   0  0  0  0  0  0  0  0  0  0  0  0
    1.6823    0.7284    0.9570 C   0  0  1  0  0  0  0  0  0  0  0  0
    3.1078    0.7057    1.4995 C   0  0  0  0  0  0  0  0  0  0  0  0
   -5.5033    2.7571   -0.4104 C   0  0  0  0  0  0  0  0  0  0  0  0
    1.8617    0.4533   -0.5247 C   0  0  0  0  0  0  0  0  0  0  0  0
    3.9787    1.0406    0.2898 C   0  0  1  0  0  0  0  0  0  0  0  0
   -1.2422   -2.5070   -0.0430 C   0  0  0  0  0  0  0  0  0  0  0  0
    4.9113   -0.0763   -0.0602 C   0  0  0  0  0  0  0  0  0  0  0  0
    7.0814   -0.7128   -1.1238 C   0  0  0  0  0  0  0  0  0  0  0  0
    6.4066    1.6580   -1.0685 C   0  0  0  0  0  0  0  0  0  0  0  0
   -2.5157    1.5065   -1.0594 H   0  0  0  0  0  0  0  0  0  0  0  0
   -4.4844    0.7946    1.1794 H   0  0  0  0  0  0  0  0  0  0  0  0
   -0.8984    1.9096    0.4663 H   0  0  0  0  0  0  0  0  0  0  0  0
   -6.2483    0.7471   -0.5803 H   0  0  0  0  0  0  0  0  0  0  0  0
   -1.2025    1.8471    2.8980 H   0  0  0  0  0  0  0  0  0  0  0  0
   -2.6602    2.5128    2.1461 H   0  0  0  0  0  0  0  0  0  0  0  0
   -2.6540    0.8474    2.7398 H   0  0  0  0  0  0  0  0  0  0  0  0
    1.2766    1.7365    1.1087 H   0  0  0  0  0  0  0  0  0  0  0  0
    3.3649   -0.2482    1.9725 H   0  0  0  0  0  0  0  0  0  0  0  0
    3.2138    1.4765    2.2733 H   0  0  0  0  0  0  0  0  0  0  0  0
    2.0207   -0.6104   -0.7409 H   0  0  0  0  0  0  0  0  0  0  0  0
    1.0194    0.8093   -1.1254 H   0  0  0  0  0  0  0  0  0  0  0  0
   -4.5888    3.3275   -0.6076 H   0  0  0  0  0  0  0  0  0  0  0  0
   -6.2890    3.1878   -1.0400 H   0  0  0  0  0  0  0  0  0  0  0  0
   -5.7763    2.8987    0.6399 H   0  0  0  0  0  0  0  0  0  0  0  0
    4.5176    1.9677    0.4995 H   0  0  0  0  0  0  0  0  0  0  0  0
    3.4856    0.8943   -1.7320 H   0  0  0  0  0  0  0  0  0  0  0  0
   -5.6748    1.5399   -2.6369 H   0  0  0  0  0  0  0  0  0  0  0  0
   -1.4791   -3.8537   -1.4264 H   0  0  0  0  0  0  0  0  0  0  0  0
    6.7888   -1.7157   -0.8028 H   0  0  0  0  0  0  0  0  0  0  0  0
    8.0402   -0.4550   -0.6646 H   0  0  0  0  0  0  0  0  0  0  0  0
    7.1751   -0.7004   -2.2134 H   0  0  0  0  0  0  0  0  0  0  0  0
    5.5370    2.1789   -1.4740 H   0  0  0  0  0  0  0  0  0  0  0  0
    7.1984    1.6848   -1.8237 H   0  0  0  0  0  0  0  0  0  0  0  0
    6.7567    2.1680   -0.1662 H   0  0  0  0  0  0  0  0  0  0  0  0
  1 14  1  0  0  0  0
  1 18  1  0  0  0  0
  2 13  2  0  0  0  0
  3 16  1  0  0  0  0
  3 44  1  0  0  0  0
  4 23  1  0  0  0  0
  4 45  1  0  0  0  0
  5 23  2  0  0  0  0
  6 24  2  0  0  0  0
  7 10  1  0  0  0  0
  7 13  1  0  0  0  0
  7 15  1  0  0  0  0
  8 21  1  0  0  0  0
  8 22  1  0  0  0  0
  8 43  1  0  0  0  0
  9 24  1  0  0  0  0
  9 25  1  0  0  0  0
  9 26  1  0  0  0  0
 10 11  1  0  0  0  0
 10 12  1  0  0  0  0
 10 27  1  0  0  0  0
 11 13  1  0  0  0  0
 11 16  1  0  0  0  0
 11 28  1  0  0  0  0
 12 14  1  0  0  0  0
 12 17  1  0  0  0  0
 12 29  1  0  0  0  0
 14 15  2  0  0  0  0
 15 23  1  0  0  0  0
 16 20  1  0  0  0  0
 16 30  1  0  0  0  0
 17 31  1  0  0  0  0
 17 32  1  0  0  0  0
 17 33  1  0  0  0  0
 18 19  1  0  0  0  0
 18 21  1  0  0  0  0
 18 34  1  0  0  0  0
 19 22  1  0  0  0  0
 19 35  1  0  0  0  0
 19 36  1  0  0  0  0
 20 39  1  0  0  0  0
 20 40  1  0  0  0  0
 20 41  1  0  0  0  0
 21 37  1  0  0  0  0
 21 38  1  0  0  0  0
 22 24  1  0  0  0  0
 22 42  1  0  0  0  0
 25 46  1  0  0  0  0
 25 47  1  0  0  0  0
 25 48  1  0  0  0  0
 26 49  1  0  0  0  0
 26 50  1  0  0  0  0
 26 51  1  0  0  0  0
M  END
> <PUBCHEM_COMPOUND_CID>
441130

> <PUBCHEM_CONFORMER_RMSD>
0.8

> <PUBCHEM_CONFORMER_DIVERSEORDER>
1
21
6
41
34
11
18
35
28
33
10
38
42
46
20
29
37
19
30
40
43
23
44
48
47
45
31
25
13
7
26
39
15
8
36
3
32
16
12
14
24
4
17
22
2
9
27
5

> <PUBCHEM_MMFF94_PARTIAL_CHARGES>
26
1 -0.33
10 0.22
11 0.05
12 0.14
13 0.58
14 -0.04
15 0.12
16 0.28
18 0.23
2 -0.57
21 0.27
22 0.33
23 0.71
24 0.57
25 0.3
26 0.3
3 -0.68
4 -0.65
43 0.36
44 0.4
45 0.5
5 -0.57
6 -0.57
7 -0.39
8 -0.9
9 -0.66

> <PUBCHEM_EFFECTIVE_ROTOR_COUNT>
7.4

> <PUBCHEM_PHARMACOPHORE_FEATURES>
11
1 2 acceptor
1 3 acceptor
1 3 donor
1 4 acceptor
1 5 acceptor
1 6 acceptor
1 8 cation
1 8 donor
3 4 5 23 anion
5 8 18 19 21 22 rings
7 7 10 11 12 13 14 15 rings

> <PUBCHEM_HEAVY_ATOM_COUNT>
26

> <PUBCHEM_ATOM_DEF_STEREO_COUNT>
6

> <PUBCHEM_ATOM_UDEF_STEREO_COUNT>
0

> <PUBCHEM_BOND_DEF_STEREO_COUNT>
0

> <PUBCHEM_BOND_UDEF_STEREO_COUNT>
0

> <PUBCHEM_ISOTOPIC_ATOM_COUNT>
0

> <PUBCHEM_COMPONENT_COUNT>
1

> <PUBCHEM_CACTVS_TAUTO_COUNT>
1

> <PUBCHEM_CONFORMER_ID>
0006BB2A00000001

> <PUBCHEM_MMFF94_ENERGY>
85.8216

> <PUBCHEM_FEATURE_SELFOVERLAP>
55.876

> <PUBCHEM_SHAPE_FINGERPRINT>
10 15 11314312767574934932
10366900 7 17346884455347038696
10369192 42 14273749460493824370
10670039 82 18337667517020045397
107951 10 18261112984522157507
10835480 77 18202278152417853168
11315181 36 18059582399430017776
11796584 16 18343866628492228558
12236239 1 18040150721378096288
12293681 160 18060134298226865305
12403259 415 18343297106373486521
12555020 224 18131632279121087062
12596602 18 11095887051659958068
12788726 201 17988364759028944256
12954195 1 17274824589261336481
14251740 79 18201445787233402154
14251752 14 18408884010368679152
14713325 29 18260830410919022449
14931854 50 18130232558449536678
15183329 4 18410293571538142720
15575132 122 17676480601803066141
17349148 13 14261356873146741656
19489759 90 17561087977712531216
19958102 18 18200600202920153814
200 152 15195571207930776536
20511986 3 18409721890369882954
20681677 155 18187645842842096266
21756936 100 17240483645406102520
23198884 109 18040155145115140378
23402539 116 18060700585005942961
23559900 14 17988636454354864640
3004659 81 18410014309118715378
4015057 19 16629955650338891848
4058900 60 18116996585818424987
44062 13 18130787931696000214
5265222 85 18268438008986142670
559249 180 18411418402014290722
56616090 284 17632854244076501929
59755656 215 18272089340645629302
59755656 520 18202014213533623259
633830 44 17023468672309617692

> <PUBCHEM_SHAPE_MULTIPOLES>
494.63
15.07
2.57
1.54
17.36
1.61
-0.34
-5.9
7.88
-2.74
0.26
-0.23
-0.42
0.06

> <PUBCHEM_SHAPE_SELFOVERLAP>
1028.812

> <PUBCHEM_SHAPE_VOLUME>
287

> <PUBCHEM_COORDINATE_TYPE>
2
5
10

$$$$
