6918456
  -OEChem-08132501553D

 46 49  0     1  0  0  0  0  0999 V2000
    3.5934   -2.1132   -0.1375 S   0  0  0  0  0  0  0  0  0  0  0  0
   -3.5384   -0.1769    2.2462 F   0  0  0  0  0  0  0  0  0  0  0  0
   -1.8688    1.6121   -1.9646 O   0  0  0  0  0  0  0  0  0  0  0  0
    5.5193   -0.3726   -0.6407 O   0  0  0  0  0  0  0  0  0  0  0  0
    5.6697    0.9740    1.2444 O   0  0  0  0  0  0  0  0  0  0  0  0
   -0.4830   -0.2968   -0.1199 N   0  0  2  0  0  0  0  0  0  0  0  0
   -1.7570    2.9551   -0.0348 C   0  0  0  0  0  0  0  0  0  0  0  0
   -2.8521    3.9279   -0.3028 C   0  0  0  0  0  0  0  0  0  0  0  0
   -2.7776    3.2182    1.0173 C   0  0  0  0  0  0  0  0  0  0  0  0
   -1.7896    1.6383   -0.7419 C   0  0  0  0  0  0  0  0  0  0  0  0
   -1.7372    0.4072    0.1481 C   0  0  1  0  0  0  0  0  0  0  0  0
   -0.3698   -1.4980    0.7338 C   0  0  0  0  0  0  0  0  0  0  0  0
    0.6636    0.6193    0.0728 C   0  0  0  0  0  0  0  0  0  0  0  0
   -2.9492   -0.4811   -0.0332 C   0  0  0  0  0  0  0  0  0  0  0  0
    0.8331   -2.3671    0.3157 C   0  0  0  0  0  0  0  0  0  0  0  0
    1.9531   -0.1296   -0.0820 C   0  0  0  0  0  0  0  0  0  0  0  0
    2.0215   -1.5008    0.0579 C   0  0  0  0  0  0  0  0  0  0  0  0
    3.2400    0.4258   -0.3501 C   0  0  0  0  0  0  0  0  0  0  0  0
   -3.7840   -0.7185    1.0451 C   0  0  0  0  0  0  0  0  0  0  0  0
   -3.1953   -1.0375   -1.2764 C   0  0  0  0  0  0  0  0  0  0  0  0
    4.2211   -0.5416   -0.4082 C   0  0  0  0  0  0  0  0  0  0  0  0
   -4.9000   -1.5379    0.8745 C   0  0  0  0  0  0  0  0  0  0  0  0
   -4.3112   -1.8569   -1.4468 C   0  0  0  0  0  0  0  0  0  0  0  0
   -5.1635   -2.1072   -0.3713 C   0  0  0  0  0  0  0  0  0  0  0  0
    6.1562    0.4244    0.2636 C   0  0  0  0  0  0  0  0  0  0  0  0
    7.6056    0.5336   -0.1091 C   0  0  0  0  0  0  0  0  0  0  0  0
   -0.7661    3.3710    0.1120 H   0  0  0  0  0  0  0  0  0  0  0  0
   -3.6517    3.6478   -0.9778 H   0  0  0  0  0  0  0  0  0  0  0  0
   -2.6007    4.9813   -0.3229 H   0  0  0  0  0  0  0  0  0  0  0  0
   -2.4729    3.7941    1.8829 H   0  0  0  0  0  0  0  0  0  0  0  0
   -3.5459    2.4836    1.2230 H   0  0  0  0  0  0  0  0  0  0  0  0
   -1.7123    0.7535    1.1902 H   0  0  0  0  0  0  0  0  0  0  0  0
   -1.2446   -2.1532    0.6708 H   0  0  0  0  0  0  0  0  0  0  0  0
   -0.2659   -1.2042    1.7877 H   0  0  0  0  0  0  0  0  0  0  0  0
    0.6442    1.0826    1.0680 H   0  0  0  0  0  0  0  0  0  0  0  0
    0.6658    1.4136   -0.6818 H   0  0  0  0  0  0  0  0  0  0  0  0
    0.5866   -2.9156   -0.6021 H   0  0  0  0  0  0  0  0  0  0  0  0
    1.0445   -3.1017    1.1010 H   0  0  0  0  0  0  0  0  0  0  0  0
    3.4301    1.4820   -0.4962 H   0  0  0  0  0  0  0  0  0  0  0  0
   -2.5373   -0.8700   -2.1233 H   0  0  0  0  0  0  0  0  0  0  0  0
   -5.5631   -1.7329    1.7121 H   0  0  0  0  0  0  0  0  0  0  0  0
   -4.5144   -2.3034   -2.4157 H   0  0  0  0  0  0  0  0  0  0  0  0
   -6.0317   -2.7461   -0.5037 H   0  0  0  0  0  0  0  0  0  0  0  0
    8.0749   -0.4523   -0.0644 H   0  0  0  0  0  0  0  0  0  0  0  0
    7.6999    0.9606   -1.1107 H   0  0  0  0  0  0  0  0  0  0  0  0
    8.1135    1.1951    0.5986 H   0  0  0  0  0  0  0  0  0  0  0  0
  1 17  1  0  0  0  0
  1 21  1  0  0  0  0
  2 19  1  0  0  0  0
  3 10  2  0  0  0  0
  4 21  1  0  0  0  0
  4 25  1  0  0  0  0
  5 25  2  0  0  0  0
  6 11  1  0  0  0  0
  6 12  1  0  0  0  0
  6 13  1  0  0  0  0
  7  8  1  0  0  0  0
  7  9  1  0  0  0  0
  7 10  1  0  0  0  0
  7 27  1  0  0  0  0
  8  9  1  0  0  0  0
  8 28  1  0  0  0  0
  8 29  1  0  0  0  0
  9 30  1  0  0  0  0
  9 31  1  0  0  0  0
 10 11  1  0  0  0  0
 11 14  1  0  0  0  0
 11 32  1  0  0  0  0
 12 15  1  0  0  0  0
 12 33  1  0  0  0  0
 12 34  1  0  0  0  0
 13 16  1  0  0  0  0
 13 35  1  0  0  0  0
 13 36  1  0  0  0  0
 14 19  1  0  0  0  0
 14 20  2  0  0  0  0
 15 17  1  0  0  0  0
 15 37  1  0  0  0  0
 15 38  1  0  0  0  0
 16 17  2  0  0  0  0
 16 18  1  0  0  0  0
 18 21  2  0  0  0  0
 18 39  1  0  0  0  0
 19 22  2  0  0  0  0
 20 23  1  0  0  0  0
 20 40  1  0  0  0  0
 22 24  1  0  0  0  0
 22 41  1  0  0  0  0
 23 24  2  0  0  0  0
 23 42  1  0  0  0  0
 24 43  1  0  0  0  0
 25 26  1  0  0  0  0
 26 44  1  0  0  0  0
 26 45  1  0  0  0  0
 26 46  1  0  0  0  0
M  END
> <PUBCHEM_COMPOUND_CID>
6918456

> <PUBCHEM_CONFORMER_RMSD>
0.8

> <PUBCHEM_CONFORMER_DIVERSEORDER>
1
113
265
174
6
116
93
180
171
112
190
228
260
89
214
191
7
201
164
227
25
126
49
249
262
211
95
42
165
124
24
233
75
154
244
39
76
44
123
199
185
256
139
255
238
135
179
172
30
241
200
53
120
204
9
230
225
107
149
102
251
266
157
78
147
71
48
8
193
18
144
245
232
60
99
23
168
187
212
161
152
57
210
209
243
167
92
62
10
34
259
264
137
261
205
239
47
41
222
86
121
184
122
85
177
87
27
229
79
182
216
240
83
148
226
159
70
36
84
94
221
129
252
218
163
65
74
40
38
189
101
115
203
158
234
52
194
141
246
100
223
178
20
162
128
29
130
43
68
132
114
198
46
176
236
213
77
11
263
105
247
151
109
67
207
31
64
98
103
254
192
248
133
96
253
51
110
66
54
26
197
235
220
156
242
196
219
150
257
138
217
215
59
97
125
35
21
237
175
33
267
106
127
119
224
81
136
131
13
186
61
63
231
170
155
140
104
28
91
169
250
22
195
50
80
143
2
173
134
208
117
90
142
3
69
5
73
37
202
12
111
108
17
160
16
19
72
55
146
258
206
32
45
181
183
166
58
15
82
188
118
14
88
153
56
4
145

> <PUBCHEM_MMFF94_PARTIAL_CHARGES>
36
1 -0.08
10 0.51
11 0.47
12 0.27
13 0.45
14 -0.14
15 0.18
16 -0.18
17 -0.14
18 -0.15
19 0.19
2 -0.19
20 -0.15
21 0.1
22 -0.15
23 -0.15
24 -0.15
25 0.66
26 0.06
27 0.1
28 0.1
29 0.1
3 -0.57
30 0.1
31 0.1
39 0.15
4 -0.21
40 0.15
41 0.15
42 0.15
43 0.15
5 -0.57
6 -0.81
7 -0.1
8 -0.2
9 -0.2

> <PUBCHEM_EFFECTIVE_ROTOR_COUNT>
7.4

> <PUBCHEM_PHARMACOPHORE_FEATURES>
6
1 3 acceptor
1 5 acceptor
1 6 cation
5 1 16 17 18 21 rings
6 14 19 20 22 23 24 rings
6 6 12 13 15 16 17 rings

> <PUBCHEM_HEAVY_ATOM_COUNT>
26

> <PUBCHEM_ATOM_DEF_STEREO_COUNT>
0

> <PUBCHEM_ATOM_UDEF_STEREO_COUNT>
1

> <PUBCHEM_BOND_DEF_STEREO_COUNT>
0

> <PUBCHEM_BOND_UDEF_STEREO_COUNT>
0

> <PUBCHEM_ISOTOPIC_ATOM_COUNT>
0

> <PUBCHEM_COMPONENT_COUNT>
1

> <PUBCHEM_CACTVS_TAUTO_COUNT>
3

> <PUBCHEM_CONFORMER_ID>
0069913800000001

> <PUBCHEM_MMFF94_ENERGY>
69.2899

> <PUBCHEM_FEATURE_SELFOVERLAP>
30.506

> <PUBCHEM_SHAPE_FINGERPRINT>
10369192 42 16773801437277063804
10670039 82 18115042835613699940
11101153 10 18263086664240202388
11315181 36 14417853657294260510
11405975 8 18120653526995915490
11578080 2 17773855598443853289
121448 382 17095528374553944339
12166972 35 17240764046720013356
12236239 1 17846786216855487258
12390115 104 18268723731479877752
12403259 415 18130781266423351328
12403260 363 18334293184780178820
12553582 1 18339632434725068975
12741549 16 17386009520661022829
12788726 201 18335973220940439643
12930653 34 18337393725427999846
13073987 5 18335980883852971010
13140716 1 18046352104434733706
13631057 29 18411412921197885517
13911987 19 17969233398170978823
14068700 675 18263076763833709053
14142880 1 18187647934412600453
14856354 85 15410617046381621582
15183329 4 9583529698390795702
16087824 20 18338796699358166077
16114785 44 18263092024659483945
17349148 13 17821451274518210398
17844677 252 18341899546149437886
17980427 23 17676217853094392428
1813 80 18199203922106028719
19377110 9 18260829276546672114
19489759 90 14201391703063579110
200 152 18333447660095897367
21236236 1 18408886205086404924
21304303 282 13913146939330284005
22393880 68 18268434529983732438
23402539 116 18333449858839422159
23559900 14 8358252619263103158
23569914 2 16412063069131625744
2747138 104 18335993072453218730
283562 15 18334292050771688651
350125 39 18410014342571306816
4325135 7 18130788992557872126
469060 322 18335434460079468193
497634 4 17489593367576293339
5104073 3 18189897522544540170
5969126 39 18341604941283825205

> <PUBCHEM_SHAPE_MULTIPOLES>
509.05
14.01
3.39
1.24
23.76
3.23
0.05
-1.82
0.51
-4.64
-0.07
-1.37
0.02
-0.01

> <PUBCHEM_SHAPE_SELFOVERLAP>
1090.027

> <PUBCHEM_SHAPE_VOLUME>
285.3

> <PUBCHEM_COORDINATE_TYPE>
2
5
10

$$$$
